# generated using pymatgen
data_C
_symmetry_space_group_name_H-M   'P 1'
_cell_length_a   12.66380191
_cell_length_b   12.53559836
_cell_length_c   26.09696412
_cell_angle_alpha   88.32018187
_cell_angle_beta   87.98048863
_cell_angle_gamma   89.64889107
_symmetry_Int_Tables_number   1
_chemical_formula_structural   C
_chemical_formula_sum   C240
_cell_volume   4138.44327826
_cell_formula_units_Z   240
loop_
 _symmetry_equiv_pos_site_id
 _symmetry_equiv_pos_as_xyz
  1  'x, y, z'
loop_
 _atom_site_type_symbol
 _atom_site_label
 _atom_site_symmetry_multiplicity
 _atom_site_fract_x
 _atom_site_fract_y
 _atom_site_fract_z
 _atom_site_occupancy
  C  C0  1  -0.02262492  0.29219146  -0.04995410  1
  C  C1  1  -0.17691385  0.30157707  0.10268549  1
  C  C2  1  -0.01722419  0.19816487  -0.13425423  1
  C  C3  1  -0.03348451  0.19620423  -0.08091928  1
  C  C4  1  -0.01651066  0.09593523  -0.05391926  1
  C  C5  1  0.10395991  0.10846694  -0.30450961  1
  C  C6  1  0.30730091  0.18205236  0.07929173  1
  C  C7  1  0.25513304  0.21170168  -0.27953098  1
  C  C8  1  -0.00488139  0.09996865  -0.16023202  1
  C  C9  1  -0.02244815  0.32395459  0.04390200  1
  C  C10  1  0.41243621  0.15665985  0.06644080  1
  C  C11  1  0.21104866  -0.48657497  -0.30398148  1
  C  C12  1  -0.04667970  0.07191088  -0.00016207  1
  C  C13  1  0.08687434  0.34162829  0.03889301  1
  C  C14  1  0.29601540  0.31119373  -0.20196304  1
  C  C15  1  0.49382341  0.31515584  0.03049751  1
  C  C16  1  0.23858324  0.38468535  -0.01495643  1
  C  C17  1  0.14958747  -0.00043565  -0.04922909  1
  C  C18  1  0.14322275  0.02116951  0.00522831  1
  C  C19  1  0.40520827  0.25744334  -0.12476595  1
  C  C20  1  0.42542853  0.09055720  -0.07592648  1
  C  C21  1  -0.31577581  -0.02978078  0.15162706  1
  C  C22  1  -0.06511595  0.30400764  0.09506816  1
  C  C23  1  0.29729631  0.38699758  -0.06251782  1
  C  C24  1  -0.07843390  0.30173235  -0.00116633  1
  C  C25  1  -0.32332885  -0.38130846  0.25669548  1
  C  C26  1  -0.45741831  0.08210171  0.00001871  1
  C  C27  1  0.13202934  0.11281079  0.10191379  1
  C  C28  1  -0.25257316  0.11670416  -0.01160116  1
  C  C29  1  -0.34411513  0.09556059  0.22025642  1
  C  C30  1  0.46799342  0.30162211  -0.08602371  1
  C  C31  1  -0.18931840  0.42078062  0.17286612  1
  C  C32  1  0.04079166  0.04807725  0.08801274  1
  C  C33  1  -0.26013073  0.22551962  -0.02671957  1
  C  C34  1  0.13010748  0.36913634  -0.01056630  1
  C  C35  1  -0.22890988  0.32340143  0.15280170  1
  C  C36  1  0.24125592  0.03657986  0.03129751  1
  C  C37  1  -0.12904894  -0.45775848  0.36104363  1
  C  C38  1  -0.30016237  0.45172066  0.29779061  1
  C  C39  1  0.34458900  0.02861332  -0.04825059  1
  C  C40  1  0.39119391  0.14675675  -0.12111812  1
  C  C41  1  0.04124021  0.03818888  0.03103500  1
  C  C42  1  0.31518543  0.31778864  -0.14823852  1
  C  C43  1  -0.02005968  0.30236838  -0.21821736  1
  C  C44  1  -0.02444389  0.13003281  0.20941956  1
  C  C45  1  0.03906551  -0.09060491  -0.15844401  1
  C  C46  1  0.29078795  -0.18742338  -0.29209101  1
  C  C47  1  -0.06370116  0.22547525  0.28949873  1
  C  C48  1  0.30173856  0.21192443  -0.23081267  1
  C  C49  1  -0.30397426  0.41268869  0.24706755  1
  C  C50  1  0.05559501  0.02336313  -0.07857316  1
  C  C51  1  -0.48437562  0.12854016  -0.05077374  1
  C  C52  1  0.25221974  0.00024348  -0.07375366  1
  C  C53  1  0.30045742  0.01035200  -0.23527326  1
  C  C54  1  0.22980644  0.09847563  0.07671722  1
  C  C55  1  0.07692127  0.34565908  -0.05618972  1
  C  C56  1  0.06570300  0.37295985  -0.14744517  1
  C  C57  1  0.15365973  0.29764367  0.07695773  1
  C  C58  1  0.01052097  0.00383088  -0.23930918  1
  C  C59  1  0.32353181  0.08834876  -0.15312610  1
  C  C60  1  -0.02407184  -0.37700561  0.29128559  1
  C  C61  1  -0.31116471  0.03104444  0.06254418  1
  C  C62  1  0.27296054  -0.00203896  -0.12958286  1
  C  C63  1  -0.35193123  0.17235194  0.17895348  1
  C  C64  1  -0.14494586  0.21035438  0.32965246  1
  C  C65  1  -0.32146270  -0.26081498  0.32150699  1
  C  C66  1  0.26236848  -0.09243362  -0.15776269  1
  C  C67  1  0.03527449  0.00776114  -0.13282228  1
  C  C68  1  0.10220005  0.22129048  0.11211048  1
  C  C69  1  -0.00773858  0.20312790  -0.24390208  1
  C  C70  1  0.01405304  -0.09569729  -0.21147006  1
  C  C71  1  0.05994872  -0.29291944  -0.15833117  1
  C  C72  1  0.04802351  0.40918098  -0.29438519  1
  C  C73  1  0.27230027  0.41022635  -0.22951161  1
  C  C74  1  0.21334626  0.11181774  -0.29931310  1
  C  C75  1  -0.04367007  -0.26738534  0.21410976  1
  C  C76  1  0.26370678  0.28768168  0.06741671  1
  C  C77  1  -0.23034753  0.29234709  0.05754437  1
  C  C78  1  0.09932034  0.30867034  -0.30628311  1
  C  C79  1  0.04803732  0.20698032  -0.29204629  1
  C  C80  1  -0.30134358  0.23190268  0.28090397  1
  C  C81  1  -0.31720055  0.12109723  0.27159671  1
  C  C82  1  0.30190958  -0.18985877  -0.23804474  1
  C  C83  1  0.17094470  -0.46246685  -0.17220601  1
  C  C84  1  -0.13496062  0.44620159  0.33627453  1
  C  C85  1  0.04696757  0.00570418  -0.29167279  1
  C  C86  1  0.31270855  0.10555135  -0.20682739  1
  C  C87  1  0.24309859  -0.28596303  -0.16006506  1
  C  C88  1  0.29710894  -0.09223512  -0.21023089  1
  C  C89  1  0.05495413  -0.28987249  -0.32038435  1
  C  C90  1  0.02181779  -0.29655858  -0.21061607  1
  C  C91  1  0.02128197  -0.39321222  -0.23886152  1
  C  C92  1  -0.21812762  -0.07176578  -0.46310567  1
  C  C93  1  0.09368678  -0.33358595  -0.48662079  1
  C  C94  1  0.09200431  -0.18827598  -0.14170078  1
  C  C95  1  0.15635157  -0.35888858  -0.15550657  1
  C  C96  1  0.04655078  -0.38709826  -0.29289980  1
  C  C97  1  -0.23934677  0.27683757  0.32138127  1
  C  C98  1  0.03260984  -0.19259656  -0.29314655  1
  C  C99  1  0.27380560  -0.28533715  -0.31886411  1
  C  C100  1  -0.03709351  0.12613997  0.26424098  1
  C  C101  1  -0.07236949  0.03515877  0.34827703  1
  C  C102  1  0.37574354  -0.12647335  -0.41596295  1
  C  C103  1  0.28681935  -0.38776341  -0.23684818  1
  C  C104  1  0.10129479  -0.48886865  -0.30775482  1
  C  C105  1  -0.24160993  -0.23190488  0.18694076  1
  C  C106  1  -0.26797521  0.47752350  0.20442841  1
  C  C107  1  -0.03734543  -0.47313469  0.26381294  1
  C  C108  1  -0.31568480  -0.12198290  0.38632270  1
  C  C109  1  -0.30308455  0.27244668  0.18582102  1
  C  C110  1  -0.08453219  0.43401270  0.18721683  1
  C  C111  1  0.20488294  -0.18685005  -0.14106236  1
  C  C112  1  -0.33084653  -0.27385057  0.26778419  1
  C  C113  1  -0.27600346  -0.41479636  0.21005232  1
  C  C114  1  0.01503430  0.49909402  -0.21581122  1
  C  C115  1  -0.09416781  -0.36023880  0.19368048  1
  C  C116  1  -0.29659279  -0.36538192  0.34516371  1
  C  C117  1  -0.02621381  0.03089137  0.18286140  1
  C  C118  1  -0.06616045  -0.16406170  0.19187099  1
  C  C119  1  -0.00512236  0.40499050  -0.24515520  1
  C  C120  1  -0.06070909  -0.46565886  0.21125150  1
  C  C121  1  -0.30795039  0.30330940  0.23899865  1
  C  C122  1  -0.31928727  -0.06997197  0.29610923  1
  C  C123  1  -0.10450776  -0.01613156  0.44303611  1
  C  C124  1  0.26996973  0.01080762  -0.28779975  1
  C  C125  1  0.05251861  -0.08991616  -0.31721260  1
  C  C126  1  0.21012530  0.31005258  -0.29915047  1
  C  C127  1  -0.00376927  0.29582866  -0.16462670  1
  C  C128  1  0.35780379  -0.23832143  -0.40786362  1
  C  C129  1  -0.38445326  -0.17118035  0.42238266  1
  C  C130  1  0.29274850  -0.32632683  -0.48121694  1
  C  C131  1  -0.21868599  -0.39074682  0.38344924  1
  C  C132  1  -0.00612724  0.10220644  -0.21432672  1
  C  C133  1  -0.20809366  -0.06414351  0.14267724  1
  C  C134  1  -0.00729301  -0.32634325  -0.46120281  1
  C  C135  1  -0.04281851  0.33096611  0.21041614  1
  C  C136  1  -0.31124670  -0.43917057  0.30356877  1
  C  C137  1  0.22628674  -0.02720422  -0.45581556  1
  C  C138  1  -0.27423771  -0.04144570  0.49227230  1
  C  C139  1  0.07714582  -0.29870681  -0.37761488  1
  C  C140  1  0.27695072  -0.06662369  -0.41110939  1
  C  C141  1  0.24108414  -0.03189015  0.45060812  1
  C  C142  1  0.18031049  -0.31726655  -0.40175807  1
  C  C143  1  -0.20544470  -0.33742457  0.18477404  1
  C  C144  1  0.21506349  -0.07936295  -0.36574412  1
  C  C145  1  0.26622742  -0.38509725  -0.29046795  1
  C  C146  1  0.39938221  -0.04069506  0.49909994  1
  C  C147  1  -0.40146999  -0.28230814  -0.45594853  1
  C  C148  1  0.29416134  -0.29020275  -0.21028528  1
  C  C149  1  -0.20423573  -0.31851930  -0.45907371  1
  C  C150  1  0.09317305  -0.32164841  0.45835098  1
  C  C151  1  -0.10737183  -0.05838508  -0.46379532  1
  C  C152  1  -0.10436433  -0.33496273  -0.48757163  1
  C  C153  1  -0.05300868  -0.02550160  0.39080407  1
  C  C154  1  0.26481928  -0.08404031  -0.31457885  1
  C  C155  1  -0.01890472  -0.07150887  0.26886358  1
  C  C156  1  0.44946661  -0.08319492  -0.45576315  1
  C  C157  1  0.07529915  0.47067207  -0.17297797  1
  C  C158  1  -0.00408197  -0.32052068  0.43167992  1
  C  C159  1  0.01799108  -0.19574310  -0.23847412  1
  C  C160  1  -0.01078602  -0.29876692  0.37434879  1
  C  C161  1  -0.02958716  0.23481539  0.18457246  1
  C  C162  1  0.39655741  -0.26434124  0.44409747  1
  C  C163  1  0.05357472  -0.06980648  -0.41457564  1
  C  C164  1  0.00140492  -0.19858896  0.34888427  1
  C  C165  1  -0.03545765  0.02742358  0.29403821  1
  C  C166  1  -0.04577785  -0.38327897  0.34477089  1
  C  C167  1  0.24715901  0.36554436  -0.10908249  1
  C  C168  1  -0.03936855  0.02498155  0.12375865  1
  C  C169  1  -0.23550483  0.38397526  0.32990027  1
  C  C170  1  0.06365050  -0.02077005  0.49321635  1
  C  C171  1  -0.30459254  0.03877039  0.30917814  1
  C  C172  1  -0.32367491  -0.09149383  0.24323185  1
  C  C173  1  -0.14380237  -0.00358319  0.10738659  1
  C  C174  1  -0.10422463  -0.34244899  0.45819141  1
  C  C175  1  0.25554488  -0.48423290  -0.20694187  1
  C  C176  1  0.13111711  -0.03569300  0.44961344  1
  C  C177  1  0.26978490  -0.28219210  -0.37544451  1
  C  C178  1  -0.44971832  0.23379382  -0.06316223  1
  C  C179  1  -0.16579716  -0.15085159  0.17047642  1
  C  C180  1  -0.33664219  -0.01082132  0.20567344  1
  C  C181  1  -0.38419270  -0.05475099  0.49502458  1
  C  C182  1  -0.31266976  -0.19881247  0.22831634  1
  C  C183  1  0.13449601  0.35554879  -0.10412079  1
  C  C184  1  -0.02595351  -0.06505096  0.21329460  1
  C  C185  1  -0.06466908  0.42836880  0.29164055  1
  C  C186  1  0.19848138  -0.18678586  0.41093816  1
  C  C187  1  -0.05489187  0.32867910  0.26519945  1
  C  C188  1  -0.00026399  0.25115572  0.13018479  1
  C  C189  1  -0.04907148  -0.02783151  0.49028461  1
  C  C190  1  0.10573393  -0.11565616  0.41239175  1
  C  C191  1  -0.26858856  -0.15208706  -0.43015913  1
  C  C192  1  -0.30491519  -0.32565650  -0.48303445  1
  C  C193  1  0.25152492  0.41094643  -0.28221738  1
  C  C194  1  0.19875379  -0.28479165  0.43793913  1
  C  C195  1  -0.18600039  0.28385531  0.00694474  1
  C  C196  1  0.40880883  0.34948951  0.00248043  1
  C  C197  1  -0.34126798  0.28931545  0.06030752  1
  C  C198  1  -0.31397246  -0.15348964  0.33474222  1
  C  C199  1  -0.30484055  -0.32671052  0.46255392  1
  C  C200  1  -0.26971635  -0.02194688  0.39673320  1
  C  C201  1  0.45229830  -0.07851261  0.45224918  1
  C  C202  1  -0.01277745  -0.27402037  0.26599289  1
  C  C203  1  0.02063458  -0.11357365  0.38441542  1
  C  C204  1  -0.15720451  0.11423699  0.35335015  1
  C  C205  1  -0.40065576  -0.27635829  0.44170271  1
  C  C206  1  0.10652938  -0.08333727  -0.36819938  1
  C  C207  1  0.11359366  -0.02798901  -0.45820590  1
  C  C208  1  -0.25620915  0.05415646  0.35794804  1
  C  C209  1  -0.00974486  -0.17814409  0.29512576  1
  C  C210  1  0.28557473  -0.11623029  0.41747836  1
  C  C211  1  0.29101743  -0.01969004  0.49795019  1
  C  C212  1  -0.44195268  -0.08818242  0.45175409  1
  C  C213  1  0.18819269  -0.32863615  -0.45679496  1
  C  C214  1  0.38682083  -0.30115671  -0.45314126  1
  C  C215  1  0.49564185  -0.29310259  0.46844295  1
  C  C216  1  0.48855889  0.24224520  0.07272442  1
  C  C217  1  -0.19753219  0.03179418  0.06259120  1
  C  C218  1  0.29745456  -0.30973950  0.46404924  1
  C  C219  1  -0.38158880  0.14551680  0.13006045  1
  C  C220  1  -0.35171282  0.07285492  0.01522712  1
  C  C221  1  -0.15653910  0.07572384  0.01477004  1
  C  C222  1  -0.35787556  0.04085124  0.11434947  1
  C  C223  1  0.40628782  0.36937751  -0.05193293  1
  C  C224  1  0.43826657  0.07591696  0.03041786  1
  C  C225  1  0.34365142  0.03619362  0.00606383  1
  C  C226  1  0.38586203  -0.15512809  0.42608998  1
  C  C227  1  -0.40834758  0.22880561  0.09180772  1
  C  C228  1  -0.20796523  -0.34841170  0.43283877  1
  C  C229  1  -0.39717232  0.32514212  0.01479910  1
  C  C230  1  0.49136364  -0.30074573  -0.47757569  1
  C  C231  1  -0.00885131  -0.29059310  -0.40895683  1
  C  C232  1  -0.36463854  0.27529549  -0.03067869  1
  C  C233  1  -0.44141465  -0.09119874  -0.45795763  1
  C  C234  1  0.30609394  0.35152343  0.02522594  1
  C  C235  1  -0.05247767  -0.10424408  -0.42096373  1
  C  C236  1  -0.37639715  -0.17967762  -0.43768710  1
  C  C237  1  -0.09303487  -0.20846829  -0.40371277  1
  C  C238  1  -0.19321284  -0.23757250  -0.42124179  1
  C  C239  1  -0.21515535  -0.01832093  0.44553643  1
