# generated using pymatgen
data_C
_symmetry_space_group_name_H-M   'P 1'
_cell_length_a   17.37874462
_cell_length_b   17.50906487
_cell_length_c   28.04126126
_cell_angle_alpha   88.14698553
_cell_angle_beta   91.36172313
_cell_angle_gamma   120.72800637
_symmetry_Int_Tables_number   1
_chemical_formula_structural   C
_chemical_formula_sum   C326
_cell_volume   7330.50727675
_cell_formula_units_Z   326
loop_
 _symmetry_equiv_pos_site_id
 _symmetry_equiv_pos_as_xyz
  1  'x, y, z'
loop_
 _atom_site_type_symbol
 _atom_site_label
 _atom_site_symmetry_multiplicity
 _atom_site_fract_x
 _atom_site_fract_y
 _atom_site_fract_z
 _atom_site_occupancy
  C  C0  1  -0.33371088  0.48599505  0.19815095  1
  C  C1  1  -0.08786387  -0.47266002  0.30300921  1
  C  C2  1  -0.24555879  0.42225035  0.17450510  1
  C  C3  1  -0.49055971  0.24549386  0.17580013  1
  C  C4  1  0.11089948  0.40481000  -0.28281372  1
  C  C5  1  0.21305507  0.35155994  -0.30302817  1
  C  C6  1  0.34499821  -0.47148458  -0.25084626  1
  C  C7  1  0.23933427  -0.48646612  -0.31405938  1
  C  C8  1  0.18602913  0.42010097  -0.31016864  1
  C  C9  1  0.20994487  -0.36344578  -0.30002276  1
  C  C10  1  -0.23855429  0.26171218  0.19262102  1
  C  C11  1  -0.29242935  -0.37448390  0.23782187  1
  C  C12  1  -0.40139110  0.19376068  0.21861510  1
  C  C13  1  -0.32491499  0.33578080  0.17523238  1
  C  C14  1  -0.09263782  0.49556268  0.20824154  1
  C  C15  1  -0.44493077  0.28973081  0.30779125  1
  C  C16  1  -0.40986735  0.33019445  0.17405982  1
  C  C17  1  -0.33617261  -0.46333695  0.23896356  1
  C  C18  1  -0.24879816  -0.49954320  0.18605099  1
  C  C19  1  -0.41357883  0.40504528  0.18931640  1
  C  C20  1  -0.46690470  0.20383430  0.29192113  1
  C  C21  1  -0.10845225  -0.34678409  0.28958525  1
  C  C22  1  -0.18961163  -0.38499759  0.31172709  1
  C  C23  1  0.10555939  -0.13470760  0.31856839  1
  C  C24  1  -0.35482300  0.35609655  0.31522348  1
  C  C25  1  -0.09801210  -0.43070162  0.22170871  1
  C  C26  1  -0.00379031  -0.21919669  0.23704729  1
  C  C27  1  -0.32044534  0.25825403  0.19064370  1
  C  C28  1  -0.29190210  0.32559282  0.31861883  1
  C  C29  1  -0.16611733  -0.41754652  0.19814455  1
  C  C30  1  -0.38179124  0.47013048  0.27901461  1
  C  C31  1  -0.32544499  0.45043067  0.31039708  1
  C  C32  1  -0.17433476  0.48426835  0.32725335  1
  C  C33  1  -0.16303849  0.42629616  0.18016623  1
  C  C34  1  -0.46753963  0.40180390  0.26711042  1
  C  C35  1  -0.20298750  0.39109796  0.32837060  1
  C  C36  1  -0.15931924  0.34693742  0.18774037  1
  C  C37  1  -0.15565883  -0.33247851  0.19764170  1
  C  C38  1  0.43417038  0.11774972  0.22865827  1
  C  C39  1  -0.23464603  -0.48352160  0.31952902  1
  C  C40  1  0.49126904  0.31832754  0.29583456  1
  C  C41  1  -0.08806281  0.36839111  0.22041815  1
  C  C42  1  -0.13261692  0.37734604  0.31467760  1
  C  C43  1  -0.39404073  0.20079542  0.26939139  1
  C  C44  1  0.33354744  0.27665243  0.27584734  1
  C  C45  1  0.40200839  0.26466654  0.30015640  1
  C  C46  1  -0.48701405  0.17316307  0.19900908  1
  C  C47  1  0.14394059  -0.10441387  0.27218944  1
  C  C48  1  -0.07931103  -0.40523000  0.27000171  1
  C  C49  1  -0.06607398  0.46124914  0.29080134  1
  C  C50  1  -0.27326935  -0.31429341  0.27764471  1
  C  C51  1  0.36350363  0.10884386  0.30498961  1
  C  C52  1  0.34552120  0.08848862  0.20701465  1
  C  C53  1  -0.06138545  0.30924432  0.23981497  1
  C  C54  1  -0.23942769  0.22554373  0.29070055  1
  C  C55  1  0.44398114  0.13745579  0.27636596  1
  C  C56  1  -0.07828505  0.27907552  0.28761524  1
  C  C57  1  -0.49348619  0.38471352  0.21638916  1
  C  C58  1  0.27201971  0.13423405  0.14736918  1
  C  C59  1  0.26221413  0.00979456  0.21894272  1
  C  C60  1  0.24525886  0.21254436  0.34993381  1
  C  C61  1  0.23234156  0.00444125  0.34948238  1
  C  C62  1  0.19564173  -0.01701349  0.18273156  1
  C  C63  1  -0.02825114  -0.21925339  0.37047956  1
  C  C64  1  0.08467785  -0.14263168  0.23217530  1
  C  C65  1  0.02752590  -0.17105603  0.40983815  1
  C  C66  1  0.23465076  -0.03082489  0.26605019  1
  C  C67  1  -0.05983613  0.45197056  0.24032000  1
  C  C68  1  0.10564002  0.23454847  0.30684630  1
  C  C69  1  -0.30883748  0.24575359  0.29496102  1
  C  C70  1  0.23903692  0.25881432  0.15121890  1
  C  C71  1  0.35754389  0.17783953  0.32517871  1
  C  C72  1  0.11088987  -0.09760607  0.18736964  1
  C  C73  1  0.33774491  0.28988731  0.22609564  1
  C  C74  1  0.42588458  0.24288208  0.17776275  1
  C  C75  1  0.03494861  0.24079374  0.28327666  1
  C  C76  1  -0.15208603  0.29053360  0.30470947  1
  C  C77  1  0.15175926  -0.03421232  0.43839397  1
  C  C78  1  0.28203349  0.02311195  0.30647212  1
  C  C79  1  0.28889430  0.16204799  0.35614148  1
  C  C80  1  0.42307348  0.30992157  0.20250200  1
  C  C81  1  0.15068834  0.07752870  0.07065652  1
  C  C82  1  0.20655727  0.04289158  0.14451284  1
  C  C83  1  0.24941351  0.19561067  0.12445893  1
  C  C84  1  0.14605529  0.01475238  0.10586385  1
  C  C85  1  0.04796232  -0.12423934  0.14960008  1
  C  C86  1  0.25569728  0.25228725  0.30276320  1
  C  C87  1  0.26025007  0.27843337  0.20132616  1
  C  C88  1  0.01342453  -0.10059219  0.06710500  1
  C  C89  1  -0.04156312  -0.19676511  0.15558750  1
  C  C90  1  0.11853454  0.27805856  0.20661280  1
  C  C91  1  0.18999471  0.27398141  0.22960045  1
  C  C92  1  0.07133112  -0.07215736  0.10674000  1
  C  C93  1  0.01312409  -0.20594513  0.32416520  1
  C  C94  1  0.04631048  0.26707471  0.23423427  1
  C  C95  1  -0.22443999  -0.23797655  0.18683269  1
  C  C96  1  0.14634504  0.16157366  0.42545159  1
  C  C97  1  -0.15986109  0.05183082  0.10585934  1
  C  C98  1  0.18453650  0.25708068  0.28012358  1
  C  C99  1  0.17337397  0.19973270  0.37805367  1
  C  C100  1  0.03955274  0.17283886  0.06866717  1
  C  C101  1  -0.18119395  -0.19171448  0.14462201  1
  C  C102  1  -0.26043302  -0.20081473  0.21796462  1
  C  C103  1  0.16465702  0.25996571  0.12898840  1
  C  C104  1  0.11000267  0.27894148  0.15576434  1
  C  C105  1  0.13073967  0.20597341  0.08656086  1
  C  C106  1  0.15513155  -0.08144144  0.35790591  1
  C  C107  1  -0.21332081  -0.18424837  0.34600870  1
  C  C108  1  0.18591161  0.16605172  0.08628708  1
  C  C109  1  -0.01926906  0.28014580  0.21027141  1
  C  C110  1  0.09901590  0.09624786  -0.01417025  1
  C  C111  1  0.17163164  0.10506248  0.45084391  1
  C  C112  1  0.02852486  0.16956486  0.38771501  1
  C  C113  1  -0.09417300  0.04174698  0.02794751  1
  C  C114  1  0.20014711  0.05551574  0.42215744  1
  C  C115  1  -0.11098727  -0.18893112  0.42397967  1
  C  C116  1  -0.18359048  -0.11846038  0.38129051  1
  C  C117  1  0.02644384  0.25600857  0.13490280  1
  C  C118  1  0.10330667  0.21000087  0.35593278  1
  C  C119  1  0.01993232  -0.08552600  -0.02050908  1
  C  C120  1  -0.08105940  -0.15792599  0.07708933  1
  C  C121  1  -0.06354425  -0.25061176  0.19652716  1
  C  C122  1  -0.03630930  -0.25298978  0.28361863  1
  C  C123  1  -0.11592952  -0.23226085  0.38116660  1
  C  C124  1  -0.22564949  0.08506950  0.27016372  1
  C  C125  1  -0.04653668  -0.18520905  -0.09973823  1
  C  C126  1  0.10430036  0.04566587  0.02851787  1
  C  C127  1  -0.03982071  0.25842601  0.16141019  1
  C  C128  1  -0.01277703  0.19444034  0.09692796  1
  C  C129  1  -0.19501505  -0.12148742  0.12845717  1
  C  C130  1  -0.10903005  0.14678687  0.10678247  1
  C  C131  1  -0.14518677  0.00320609  0.07132329  1
  C  C132  1  -0.12558634  0.19105847  0.14333202  1
  C  C133  1  -0.22871172  0.18495586  0.20905937  1
  C  C134  1  -0.06426962  0.12295642  0.37433322  1
  C  C135  1  -0.20600979  -0.01719835  0.32612338  1
  C  C136  1  -0.10211385  0.14228702  0.33411435  1
  C  C137  1  -0.25046341  -0.11665040  0.20719053  1
  C  C138  1  -0.00687757  0.08863004  0.46547660  1
  C  C139  1  0.11746554  -0.10224155  0.40423487  1
  C  C140  1  0.10519895  -0.03889615  0.48118603  1
  C  C141  1  -0.12387889  -0.06631210  0.46006756  1
  C  C142  1  0.24434478  0.07548258  0.37871066  1
  C  C143  1  0.12952411  0.05167095  0.49192841  1
  C  C144  1  -0.16629932  -0.08454082  0.08229831  1
  C  C145  1  0.34549257  0.15381437  0.17668782  1
  C  C146  1  -0.17581170  -0.03461813  0.37047200  1
  C  C147  1  -0.22409832  -0.32113279  0.31632646  1
  C  C148  1  -0.22325189  -0.07907669  0.16022830  1
  C  C149  1  -0.24874596  -0.16981726  0.30276519  1
  C  C150  1  -0.24348821  -0.08629270  0.29235266  1
  C  C151  1  -0.14719229  -0.13095249  0.42499501  1
  C  C152  1  -0.11564784  0.03866611  0.39852041  1
  C  C153  1  -0.15910468  -0.07867004  -0.45210477  1
  C  C154  1  -0.19960534  0.14476499  0.17591976  1
  C  C155  1  -0.02477788  -0.16233065  0.44561550  1
  C  C156  1  -0.04584126  -0.10731317  -0.47993194  1
  C  C157  1  -0.25092651  -0.06230806  0.24406399  1
  C  C158  1  -0.18844495  -0.25119847  0.34851053  1
  C  C159  1  -0.27082480  -0.23270134  0.26670399  1
  C  C160  1  0.01435428  -0.10596285  0.48417277  1
  C  C161  1  0.04869431  -0.04590763  0.02520730  1
  C  C162  1  -0.10156546  -0.16342944  -0.07282236  1
  C  C163  1  -0.00843512  0.11698236  0.02654846  1
  C  C164  1  -0.13470287  -0.12710054  0.05169256  1
  C  C165  1  0.08138527  -0.06796625  -0.05786143  1
  C  C166  1  0.10978270  -0.01810633  -0.39934344  1
  C  C167  1  -0.09093669  0.02335814  0.44479748  1
  C  C168  1  -0.08590813  0.11355131  -0.37987916  1
  C  C169  1  -0.20754709  0.00727592  0.14882657  1
  C  C170  1  0.22659427  0.00891560  -0.14389203  1
  C  C171  1  0.24058797  -0.11401694  -0.16453232  1
  C  C172  1  -0.01264448  0.13395375  -0.40987068  1
  C  C173  1  -0.13687814  0.00894950  -0.43915952  1
  C  C174  1  -0.18254916  0.07289307  0.31327627  1
  C  C175  1  -0.07242567  0.14664781  -0.33379967  1
  C  C176  1  0.07548862  0.32613532  -0.25405133  1
  C  C177  1  0.02019770  0.24322507  -0.27253635  1
  C  C178  1  -0.11569201  0.11002909  -0.24916236  1
  C  C179  1  -0.16960872  0.05268908  -0.21215107  1
  C  C180  1  -0.10823554  -0.19592519  0.12284091  1
  C  C181  1  0.13887968  0.09023901  -0.05544573  1
  C  C182  1  -0.22470727  -0.01937289  -0.35941176  1
  C  C183  1  0.05674514  0.14523356  0.43113901  1
  C  C184  1  -0.22297790  0.05497348  0.18469485  1
  C  C185  1  -0.16080007  0.03126190  -0.39398581  1
  C  C186  1  -0.13721707  0.09651833  -0.29852844  1
  C  C187  1  0.04801124  -0.13523827  -0.09324145  1
  C  C188  1  -0.04673611  0.07661388  -0.44876543  1
  C  C189  1  0.10452467  0.05784491  -0.41943805  1
  C  C190  1  0.15255351  0.02045489  -0.06858632  1
  C  C191  1  0.19347204  -0.08494747  -0.13954943  1
  C  C192  1  0.07400260  0.17443517  -0.38825235  1
  C  C193  1  -0.07266689  -0.13037522  -0.02783862  1
  C  C194  1  0.21592486  0.13675403  -0.12553086  1
  C  C195  1  0.26334870  0.05175290  -0.18921820  1
  C  C196  1  0.20466765  0.05240934  -0.11183080  1
  C  C197  1  0.11179196  0.18635560  -0.11672717  1
  C  C198  1  0.25536336  0.35510266  -0.25852805  1
  C  C199  1  0.28333497  0.00617246  -0.22301639  1
  C  C200  1  0.05860399  -0.22457388  -0.15319014  1
  C  C201  1  -0.03120549  0.18060210  -0.23640730  1
  C  C202  1  -0.25874972  -0.01236232  -0.22736842  1
  C  C203  1  0.16211194  0.15184441  -0.09474207  1
  C  C204  1  0.17299232  0.27152728  -0.32630740  1
  C  C205  1  0.09234324  0.26229522  -0.18255509  1
  C  C206  1  -0.04128273  0.12373368  -0.15280768  1
  C  C207  1  -0.23973490  0.02310426  0.23299757  1
  C  C208  1  0.24485074  0.08058306  -0.28721927  1
  C  C209  1  -0.15759469  -0.14082512  -0.10071384  1
  C  C210  1  0.26127552  0.12874280  -0.20467354  1
  C  C211  1  0.25317447  0.14352939  -0.25404088  1
  C  C212  1  0.20381591  0.07604970  -0.33300986  1
  C  C213  1  0.24759596  -0.05463519  -0.30385736  1
  C  C214  1  -0.01952954  0.09384509  -0.06494976  1
  C  C215  1  0.03665628  0.12380615  -0.01848457  1
  C  C216  1  0.01369116  0.13690824  -0.11037124  1
  C  C217  1  0.00311272  0.18948742  -0.18945450  1
  C  C218  1  -0.17853381  -0.02952188  -0.13970596  1
  C  C219  1  -0.13227226  0.05377327  -0.16515084  1
  C  C220  1  -0.14476994  -0.05471141  -0.09884686  1
  C  C221  1  0.17792157  0.13825201  -0.34605743  1
  C  C222  1  0.16735771  -0.00387125  -0.35914814  1
  C  C223  1  0.00557419  -0.28819660  -0.28947384  1
  C  C224  1  0.17495706  -0.07568613  -0.33811522  1
  C  C225  1  0.15246280  0.24129582  -0.15786206  1
  C  C226  1  0.24070511  0.17539425  -0.17145637  1
  C  C227  1  0.10242611  -0.14826567  -0.12464981  1
  C  C228  1  -0.04641325  0.22583619  0.30569109  1
  C  C229  1  0.08665731  0.23163983  -0.35028011  1
  C  C230  1  0.10344046  -0.16200070  -0.34268727  1
  C  C231  1  -0.14143128  -0.31061760  -0.23099210  1
  C  C232  1  0.23773764  0.21289488  -0.26899592  1
  C  C233  1  0.20577679  0.42337007  -0.20744662  1
  C  C234  1  -0.30840083  -0.08554452  -0.19592125  1
  C  C235  1  -0.21609830  0.01914032  -0.31299430  1
  C  C236  1  0.26738098  0.01612048  -0.27198172  1
  C  C237  1  0.07491878  -0.30822666  -0.21632554  1
  C  C238  1  -0.22842210  -0.31871376  0.20015651  1
  C  C239  1  0.29312035  -0.10015347  -0.30103286  1
  C  C240  1  0.49029426  -0.11036083  -0.21402571  1
  C  C241  1  -0.11551117  -0.02140512  -0.01075723  1
  C  C242  1  0.24344081  0.27636109  -0.23572540  1
  C  C243  1  0.01261831  0.21881820  -0.32209632  1
  C  C244  1  -0.19832849  -0.19681307  -0.14066411  1
  C  C245  1  -0.28004350  -0.02508513  -0.27705699  1
  C  C246  1  -0.28056718  -0.11515041  -0.36057777  1
  C  C247  1  -0.39430311  -0.16392482  -0.20558804  1
  C  C248  1  -0.44507254  -0.11190716  -0.28928016  1
  C  C249  1  -0.25209886  -0.17076305  -0.38060895  1
  C  C250  1  0.08287324  0.06731116  -0.46993961  1
  C  C251  1  -0.25442207  -0.10127982  -0.16307849  1
  C  C252  1  0.20240227  0.21064228  -0.31520678  1
  C  C253  1  -0.06020125  -0.24402078  -0.35502936  1
  C  C254  1  -0.31312190  -0.24537269  -0.20305526  1
  C  C255  1  0.44801291  -0.33220353  -0.20621191  1
  C  C256  1  -0.39030818  -0.24138179  -0.21352646  1
  C  C257  1  0.36818915  -0.41248439  -0.20955133  1
  C  C258  1  -0.27647875  -0.29179806  -0.22669578  1
  C  C259  1  0.10835617  -0.25626968  -0.17577113  1
  C  C260  1  0.37273689  -0.26804245  -0.16709373  1
  C  C261  1  0.45179714  -0.25747271  -0.18471061  1
  C  C262  1  -0.03298688  -0.26277068  -0.16561382  1
  C  C263  1  -0.06983104  -0.28884515  -0.30989471  1
  C  C264  1  0.09389200  -0.23727813  -0.31301472  1
  C  C265  1  0.36719937  -0.07346305  -0.22112088  1
  C  C266  1  0.37824678  -0.06371161  -0.27295812  1
  C  C267  1  0.11228148  0.48202376  -0.26813418  1
  C  C268  1  0.25987496  -0.18733370  -0.31990002  1
  C  C269  1  0.12047514  0.33730472  -0.21065026  1
  C  C270  1  -0.26089032  -0.18492535  -0.16622096  1
  C  C271  1  -0.08532716  -0.23784007  -0.14049300  1
  C  C272  1  -0.06166416  -0.30123448  -0.21102672  1
  C  C273  1  -0.18390873  -0.14599851  -0.41580854  1
  C  C274  1  -0.21534830  -0.28036610  -0.34821019  1
  C  C275  1  -0.16793398  -0.25119663  -0.15943568  1
  C  C276  1  -0.12370786  -0.17766428  -0.40937563  1
  C  C277  1  0.25332733  -0.24703166  -0.17093358  1
  C  C278  1  0.29011550  -0.42680562  -0.18492779  1
  C  C279  1  -0.29371566  -0.31324670  -0.27644310  1
  C  C280  1  -0.33092023  -0.27697795  -0.31151291  1
  C  C281  1  -0.13423839  -0.23927644  -0.37262499  1
  C  C282  1  -0.34971991  -0.15447273  -0.32737241  1
  C  C283  1  0.14709539  -0.40008197  -0.20531948  1
  C  C284  1  0.18349565  -0.45146197  -0.29820092  1
  C  C285  1  0.20277258  -0.50003149  -0.19562555  1
  C  C286  1  0.40645852  -0.12263920  -0.19756031  1
  C  C287  1  0.20325094  -0.20827723  -0.16780166  1
  C  C288  1  -0.38863629  -0.24246989  -0.30903624  1
  C  C289  1  0.29266156  -0.35244014  -0.16719511  1
  C  C290  1  0.35017191  -0.20115714  -0.17190654  1
  C  C291  1  0.16484775  -0.25065969  -0.30796086  1
  C  C292  1  -0.36260779  -0.09665035  -0.29602216  1
  C  C293  1  -0.14866299  -0.31569419  -0.28150257  1
  C  C294  1  -0.22371218  -0.31695614  -0.30177510  1
  C  C295  1  0.03932444  -0.10969055  -0.40504223  1
  C  C296  1  -0.12135925  -0.10186652  0.00375167  1
  C  C297  1  -0.27447416  -0.24726124  -0.35263813  1
  C  C298  1  0.32286931  -0.21672119  -0.32275297  1
  C  C299  1  0.21743982  -0.34169829  -0.17368999  1
  C  C300  1  -0.19952861  -0.29056239  -0.20492477  1
  C  C301  1  0.29963497  -0.30688811  -0.31521516  1
  C  C302  1  -0.03966491  -0.13168391  -0.43260715  1
  C  C303  1  0.11895908  -0.34997243  -0.23786660  1
  C  C304  1  0.41567059  -0.15445319  -0.32028083  1
  C  C305  1  0.30289565  -0.05976436  -0.20168906  1
  C  C306  1  -0.47866481  -0.06539006  -0.26085833  1
  C  C307  1  0.13764192  -0.48129280  -0.21754483  1
  C  C308  1  0.02811448  -0.17523315  -0.37001731  1
  C  C309  1  0.36132542  -0.33745427  -0.30567626  1
  C  C310  1  0.47749440  -0.18364466  -0.31340605  1
  C  C311  1  0.44308440  -0.07900104  -0.28975236  1
  C  C312  1  0.27688803  0.43710621  -0.23446408  1
  C  C313  1  0.22198261  0.24303387  -0.18572962  1
  C  C314  1  -0.47501671  -0.30776403  -0.23711602  1
  C  C315  1  0.32650630  -0.43238707  -0.29342281  1
  C  C316  1  -0.11174485  -0.08772565  -0.49102564  1
  C  C317  1  0.12418384  0.12782085  -0.38813119  1
  C  C318  1  -0.47950517  -0.17006592  -0.19932794  1
  C  C319  1  0.00148210  -0.30799292  -0.23996609  1
  C  C320  1  0.15603177  -0.32857524  -0.28228417  1
  C  C321  1  0.45365035  -0.27283865  -0.30615960  1
  C  C322  1  -0.47501309  -0.28556453  -0.28480223  1
  C  C323  1  0.01457564  0.08040434  -0.48488282  1
  C  C324  1  -0.24018488  0.15676116  0.25752633  1
  C  C325  1  -0.09471673  0.00893663  -0.05952126  1
